<edges>
  <edge id="P0_I0" from="P0" to="I0" type="a"/>
  <edge id="I0_P0" from="I0" to="P0" type="a"/>
  <edge id="P1_I1" from="P1" to="I1" type="a"/>
  <edge id="I1_P1" from="I1" to="P1" type="a"/>
  <edge id="P2_I2" from="P2" to="I2" type="a"/>
  <edge id="I2_P2" from="I2" to="P2" type="a"/>
  <edge id="P3_I6" from="P3" to="I6" type="a"/>
  <edge id="I6_P3" from="I6" to="P3" type="a"/>
  <edge id="P4_I7" from="P4" to="I7" type="a"/>
  <edge id="I7_P4" from="I7" to="P4" type="a"/>
  <edge id="P5_I8" from="P5" to="I8" type="a"/>
  <edge id="I8_P5" from="I8" to="P5" type="a"/>
  <edge id="P6_I0" from="P6" to="I0" type="a"/>
  <edge id="I0_P6" from="I0" to="P6" type="a"/>
  <edge id="P7_I3" from="P7" to="I3" type="a"/>
  <edge id="I3_P7" from="I3" to="P7" type="a"/>
  <edge id="P8_I6" from="P8" to="I6" type="a"/>
  <edge id="I6_P8" from="I6" to="P8" type="a"/>
  <edge id="P9_I2" from="P9" to="I2" type="a"/>
  <edge id="I2_P9" from="I2" to="P9" type="a"/>
  <edge id="P10_I5" from="P10" to="I5" type="a"/>
  <edge id="I5_P10" from="I5" to="P10" type="a"/>
  <edge id="P11_I8" from="P11" to="I8" type="a"/>
  <edge id="I8_P11" from="I8" to="P11" type="a"/>
  <edge id="I0_I1" from="I0" to="I1" type="a"/>
  <edge id="I1_I0" from="I1" to="I0" type="a"/>
  <edge id="I1_I2" from="I1" to="I2" type="a"/>
  <edge id="I2_I1" from="I2" to="I1" type="a"/>
  <edge id="I3_I4" from="I3" to="I4" type="a"/>
  <edge id="I4_I3" from="I4" to="I3" type="a"/>
  <edge id="I4_I5" from="I4" to="I5" type="a"/>
  <edge id="I5_I4" from="I5" to="I4" type="a"/>
  <edge id="I6_I7" from="I6" to="I7" type="a"/>
  <edge id="I7_I6" from="I7" to="I6" type="a"/>
  <edge id="I7_I8" from="I7" to="I8" type="a"/>
  <edge id="I8_I7" from="I8" to="I7" type="a"/>
  <edge id="I0_I3" from="I0" to="I3" type="a"/>
  <edge id="I3_I0" from="I3" to="I0" type="a"/>
  <edge id="I1_I4" from="I1" to="I4" type="a"/>
  <edge id="I4_I1" from="I4" to="I1" type="a"/>
  <edge id="I2_I5" from="I2" to="I5" type="a"/>
  <edge id="I5_I2" from="I5" to="I2" type="a"/>
  <edge id="I3_I6" from="I3" to="I6" type="a"/>
  <edge id="I6_I3" from="I6" to="I3" type="a"/>
  <edge id="I4_I7" from="I4" to="I7" type="a"/>
  <edge id="I7_I4" from="I7" to="I4" type="a"/>
  <edge id="I5_I8" from="I5" to="I8" type="a"/>
  <edge id="I8_I5" from="I8" to="I5" type="a"/>
</edges>
