<?xml version="1.0" encoding="UTF-8"?>

<!-- generated on 09/09/19 17:15:30 by Eclipse SUMO netconvert Version 1.1.0
<configuration xmlns:xsi="http://www.w3.org/2001/XMLSchema-instance" xsi:noNamespaceSchemaLocation="http://sumo.dlr.de/xsd/netconvertConfiguration.xsd">

    <input>
        <node-files value="./data/Grid9.nod.xml"/>
        <edge-files value="./data/Grid9.edg.xml"/>
        <connection-files value="./data/Grid9.con.xml"/>
        <tllogic-files value="./data/Grid9.tll.xml"/>
        <type-files value="./data/Grid9.typ.xml"/>
    </input>

    <output>
        <output-file value="./data/Grid9.net.xml"/>
    </output>

</configuration>
-->

<net version="1.1" junctionCornerDetail="5" limitTurnSpeed="5.50" xmlns:xsi="http://www.w3.org/2001/XMLSchema-instance" xsi:noNamespaceSchemaLocation="http://sumo.dlr.de/xsd/net_file.xsd">

    <location netOffset="200.00,200.00" convBoundary="0.00,0.00,1400.00,1400.00" origBoundary="-200.00,-200.00,1200.00,1200.00" projParameter="!"/>

    <type id="a" numLanes="3" speed="16.67"/>

    <edge id=":I0_0" function="internal">
        <lane id=":I0_0_0" index="0" speed="6.51" length="9.03" shape="192.00,213.60 191.65,211.15 190.60,209.40 188.85,208.35 186.40,208.00"/>
    </edge>
    <edge id=":I0_1" function="internal">
        <lane id=":I0_1_0" index="0" speed="16.67" length="27.20" shape="192.00,213.60 192.00,186.40"/>
        <lane id=":I0_1_1" index="1" speed="16.67" length="27.20" shape="195.20,213.60 195.20,186.40"/>
    </edge>
    <edge id=":I0_3" function="internal">
        <lane id=":I0_3_0" index="0" speed="10.36" length="24.51" shape="198.40,213.60 199.35,206.95 202.20,202.20 206.95,199.35 213.60,198.40"/>
    </edge>
    <edge id=":I0_4" function="internal">
        <lane id=":I0_4_0" index="0" speed="6.51" length="9.03" shape="213.60,208.00 211.15,208.35 209.40,209.40 208.35,211.15 208.00,213.60"/>
    </edge>
    <edge id=":I0_5" function="internal">
        <lane id=":I0_5_0" index="0" speed="16.67" length="27.20" shape="213.60,208.00 186.40,208.00"/>
        <lane id=":I0_5_1" index="1" speed="16.67" length="27.20" shape="213.60,204.80 186.40,204.80"/>
    </edge>
    <edge id=":I0_7" function="internal">
        <lane id=":I0_7_0" index="0" speed="10.36" length="24.51" shape="213.60,201.60 206.95,200.65 202.20,197.80 199.35,193.05 198.40,186.40"/>
    </edge>
    <edge id=":I0_8" function="internal">
        <lane id=":I0_8_0" index="0" speed="6.51" length="9.03" shape="208.00,186.40 208.35,188.85 209.40,190.60 211.15,191.65 213.60,192.00"/>
    </edge>
    <edge id=":I0_9" function="internal">
        <lane id=":I0_9_0" index="0" speed="16.67" length="27.20" shape="208.00,186.40 208.00,213.60"/>
        <lane id=":I0_9_1" index="1" speed="16.67" length="27.20" shape="204.80,186.40 204.80,213.60"/>
    </edge>
    <edge id=":I0_11" function="internal">
        <lane id=":I0_11_0" index="0" speed="10.36" length="24.51" shape="201.60,186.40 200.65,193.05 197.80,197.80 193.05,200.65 186.40,201.60"/>
    </edge>
    <edge id=":I0_12" function="internal">
        <lane id=":I0_12_0" index="0" speed="6.51" length="9.03" shape="186.40,192.00 188.85,191.65 190.60,190.60 191.65,188.85 192.00,186.40"/>
    </edge>
    <edge id=":I0_13" function="internal">
        <lane id=":I0_13_0" index="0" speed="16.67" length="27.20" shape="186.40,192.00 213.60,192.00"/>
        <lane id=":I0_13_1" index="1" speed="16.67" length="27.20" shape="186.40,195.20 213.60,195.20"/>
    </edge>
    <edge id=":I0_15" function="internal">
        <lane id=":I0_15_0" index="0" speed="10.36" length="24.51" shape="186.40,198.40 193.05,199.35 197.80,202.20 200.65,206.95 201.60,213.60"/>
    </edge>
    <edge id=":I1_0" function="internal">
        <lane id=":I1_0_0" index="0" speed="6.51" length="9.03" shape="692.00,213.60 691.65,211.15 690.60,209.40 688.85,208.35 686.40,208.00"/>
    </edge>
    <edge id=":I1_1" function="internal">
        <lane id=":I1_1_0" index="0" speed="16.67" length="27.20" shape="692.00,213.60 692.00,186.40"/>
        <lane id=":I1_1_1" index="1" speed="16.67" length="27.20" shape="695.20,213.60 695.20,186.40"/>
    </edge>
    <edge id=":I1_3" function="internal">
        <lane id=":I1_3_0" index="0" speed="10.36" length="24.51" shape="698.40,213.60 699.35,206.95 702.20,202.20 706.95,199.35 713.60,198.40"/>
    </edge>
    <edge id=":I1_4" function="internal">
        <lane id=":I1_4_0" index="0" speed="6.51" length="9.03" shape="713.60,208.00 711.15,208.35 709.40,209.40 708.35,211.15 708.00,213.60"/>
    </edge>
    <edge id=":I1_5" function="internal">
        <lane id=":I1_5_0" index="0" speed="16.67" length="27.20" shape="713.60,208.00 686.40,208.00"/>
        <lane id=":I1_5_1" index="1" speed="16.67" length="27.20" shape="713.60,204.80 686.40,204.80"/>
    </edge>
    <edge id=":I1_7" function="internal">
        <lane id=":I1_7_0" index="0" speed="10.36" length="24.51" shape="713.60,201.60 706.95,200.65 702.20,197.80 699.35,193.05 698.40,186.40"/>
    </edge>
    <edge id=":I1_8" function="internal">
        <lane id=":I1_8_0" index="0" speed="6.51" length="9.03" shape="708.00,186.40 708.35,188.85 709.40,190.60 711.15,191.65 713.60,192.00"/>
    </edge>
    <edge id=":I1_9" function="internal">
        <lane id=":I1_9_0" index="0" speed="16.67" length="27.20" shape="708.00,186.40 708.00,213.60"/>
        <lane id=":I1_9_1" index="1" speed="16.67" length="27.20" shape="704.80,186.40 704.80,213.60"/>
    </edge>
    <edge id=":I1_11" function="internal">
        <lane id=":I1_11_0" index="0" speed="10.36" length="24.51" shape="701.60,186.40 700.65,193.05 697.80,197.80 693.05,200.65 686.40,201.60"/>
    </edge>
    <edge id=":I1_12" function="internal">
        <lane id=":I1_12_0" index="0" speed="6.51" length="9.03" shape="686.40,192.00 688.85,191.65 690.60,190.60 691.65,188.85 692.00,186.40"/>
    </edge>
    <edge id=":I1_13" function="internal">
        <lane id=":I1_13_0" index="0" speed="16.67" length="27.20" shape="686.40,192.00 713.60,192.00"/>
        <lane id=":I1_13_1" index="1" speed="16.67" length="27.20" shape="686.40,195.20 713.60,195.20"/>
    </edge>
    <edge id=":I1_15" function="internal">
        <lane id=":I1_15_0" index="0" speed="10.36" length="24.51" shape="686.40,198.40 693.05,199.35 697.80,202.20 700.65,206.95 701.60,213.60"/>
    </edge>
    <edge id=":I2_0" function="internal">
        <lane id=":I2_0_0" index="0" speed="6.51" length="9.03" shape="1192.00,213.60 1191.65,211.15 1190.60,209.40 1188.85,208.35 1186.40,208.00"/>
    </edge>
    <edge id=":I2_1" function="internal">
        <lane id=":I2_1_0" index="0" speed="16.67" length="27.20" shape="1192.00,213.60 1192.00,186.40"/>
        <lane id=":I2_1_1" index="1" speed="16.67" length="27.20" shape="1195.20,213.60 1195.20,186.40"/>
    </edge>
    <edge id=":I2_3" function="internal">
        <lane id=":I2_3_0" index="0" speed="10.36" length="24.51" shape="1198.40,213.60 1199.35,206.95 1202.20,202.20 1206.95,199.35 1213.60,198.40"/>
    </edge>
    <edge id=":I2_4" function="internal">
        <lane id=":I2_4_0" index="0" speed="6.51" length="9.03" shape="1213.60,208.00 1211.15,208.35 1209.40,209.40 1208.35,211.15 1208.00,213.60"/>
    </edge>
    <edge id=":I2_5" function="internal">
        <lane id=":I2_5_0" index="0" speed="16.67" length="27.20" shape="1213.60,208.00 1186.40,208.00"/>
        <lane id=":I2_5_1" index="1" speed="16.67" length="27.20" shape="1213.60,204.80 1186.40,204.80"/>
    </edge>
    <edge id=":I2_7" function="internal">
        <lane id=":I2_7_0" index="0" speed="10.36" length="24.51" shape="1213.60,201.60 1206.95,200.65 1202.20,197.80 1199.35,193.05 1198.40,186.40"/>
    </edge>
    <edge id=":I2_8" function="internal">
        <lane id=":I2_8_0" index="0" speed="6.51" length="9.03" shape="1208.00,186.40 1208.35,188.85 1209.40,190.60 1211.15,191.65 1213.60,192.00"/>
    </edge>
    <edge id=":I2_9" function="internal">
        <lane id=":I2_9_0" index="0" speed="16.67" length="27.20" shape="1208.00,186.40 1208.00,213.60"/>
        <lane id=":I2_9_1" index="1" speed="16.67" length="27.20" shape="1204.80,186.40 1204.80,213.60"/>
    </edge>
    <edge id=":I2_11" function="internal">
        <lane id=":I2_11_0" index="0" speed="10.36" length="24.51" shape="1201.60,186.40 1200.65,193.05 1197.80,197.80 1193.05,200.65 1186.40,201.60"/>
    </edge>
    <edge id=":I2_12" function="internal">
        <lane id=":I2_12_0" index="0" speed="6.51" length="9.03" shape="1186.40,192.00 1188.85,191.65 1190.60,190.60 1191.65,188.85 1192.00,186.40"/>
    </edge>
    <edge id=":I2_13" function="internal">
        <lane id=":I2_13_0" index="0" speed="16.67" length="27.20" shape="1186.40,192.00 1213.60,192.00"/>
        <lane id=":I2_13_1" index="1" speed="16.67" length="27.20" shape="1186.40,195.20 1213.60,195.20"/>
    </edge>
    <edge id=":I2_15" function="internal">
        <lane id=":I2_15_0" index="0" speed="10.36" length="24.51" shape="1186.40,198.40 1193.05,199.35 1197.80,202.20 1200.65,206.95 1201.60,213.60"/>
    </edge>
    <edge id=":I3_0" function="internal">
        <lane id=":I3_0_0" index="0" speed="6.51" length="9.03" shape="192.00,713.60 191.65,711.15 190.60,709.40 188.85,708.35 186.40,708.00"/>
    </edge>
    <edge id=":I3_1" function="internal">
        <lane id=":I3_1_0" index="0" speed="16.67" length="27.20" shape="192.00,713.60 192.00,686.40"/>
        <lane id=":I3_1_1" index="1" speed="16.67" length="27.20" shape="195.20,713.60 195.20,686.40"/>
    </edge>
    <edge id=":I3_3" function="internal">
        <lane id=":I3_3_0" index="0" speed="10.36" length="24.51" shape="198.40,713.60 199.35,706.95 202.20,702.20 206.95,699.35 213.60,698.40"/>
    </edge>
    <edge id=":I3_4" function="internal">
        <lane id=":I3_4_0" index="0" speed="6.51" length="9.03" shape="213.60,708.00 211.15,708.35 209.40,709.40 208.35,711.15 208.00,713.60"/>
    </edge>
    <edge id=":I3_5" function="internal">
        <lane id=":I3_5_0" index="0" speed="16.67" length="27.20" shape="213.60,708.00 186.40,708.00"/>
        <lane id=":I3_5_1" index="1" speed="16.67" length="27.20" shape="213.60,704.80 186.40,704.80"/>
    </edge>
    <edge id=":I3_7" function="internal">
        <lane id=":I3_7_0" index="0" speed="10.36" length="24.51" shape="213.60,701.60 206.95,700.65 202.20,697.80 199.35,693.05 198.40,686.40"/>
    </edge>
    <edge id=":I3_8" function="internal">
        <lane id=":I3_8_0" index="0" speed="6.51" length="9.03" shape="208.00,686.40 208.35,688.85 209.40,690.60 211.15,691.65 213.60,692.00"/>
    </edge>
    <edge id=":I3_9" function="internal">
        <lane id=":I3_9_0" index="0" speed="16.67" length="27.20" shape="208.00,686.40 208.00,713.60"/>
        <lane id=":I3_9_1" index="1" speed="16.67" length="27.20" shape="204.80,686.40 204.80,713.60"/>
    </edge>
    <edge id=":I3_11" function="internal">
        <lane id=":I3_11_0" index="0" speed="10.36" length="24.51" shape="201.60,686.40 200.65,693.05 197.80,697.80 193.05,700.65 186.40,701.60"/>
    </edge>
    <edge id=":I3_12" function="internal">
        <lane id=":I3_12_0" index="0" speed="6.51" length="9.03" shape="186.40,692.00 188.85,691.65 190.60,690.60 191.65,688.85 192.00,686.40"/>
    </edge>
    <edge id=":I3_13" function="internal">
        <lane id=":I3_13_0" index="0" speed="16.67" length="27.20" shape="186.40,692.00 213.60,692.00"/>
        <lane id=":I3_13_1" index="1" speed="16.67" length="27.20" shape="186.40,695.20 213.60,695.20"/>
    </edge>
    <edge id=":I3_15" function="internal">
        <lane id=":I3_15_0" index="0" speed="10.36" length="24.51" shape="186.40,698.40 193.05,699.35 197.80,702.20 200.65,706.95 201.60,713.60"/>
    </edge>
    <edge id=":I4_0" function="internal">
        <lane id=":I4_0_0" index="0" speed="6.51" length="9.03" shape="692.00,713.60 691.65,711.15 690.60,709.40 688.85,708.35 686.40,708.00"/>
    </edge>
    <edge id=":I4_1" function="internal">
        <lane id=":I4_1_0" index="0" speed="16.67" length="27.20" shape="692.00,713.60 692.00,686.40"/>
        <lane id=":I4_1_1" index="1" speed="16.67" length="27.20" shape="695.20,713.60 695.20,686.40"/>
    </edge>
    <edge id=":I4_3" function="internal">
        <lane id=":I4_3_0" index="0" speed="10.36" length="24.51" shape="698.40,713.60 699.35,706.95 702.20,702.20 706.95,699.35 713.60,698.40"/>
    </edge>
    <edge id=":I4_4" function="internal">
        <lane id=":I4_4_0" index="0" speed="6.51" length="9.03" shape="713.60,708.00 711.15,708.35 709.40,709.40 708.35,711.15 708.00,713.60"/>
    </edge>
    <edge id=":I4_5" function="internal">
        <lane id=":I4_5_0" index="0" speed="16.67" length="27.20" shape="713.60,708.00 686.40,708.00"/>
        <lane id=":I4_5_1" index="1" speed="16.67" length="27.20" shape="713.60,704.80 686.40,704.80"/>
    </edge>
    <edge id=":I4_7" function="internal">
        <lane id=":I4_7_0" index="0" speed="10.36" length="24.51" shape="713.60,701.60 706.95,700.65 702.20,697.80 699.35,693.05 698.40,686.40"/>
    </edge>
    <edge id=":I4_8" function="internal">
        <lane id=":I4_8_0" index="0" speed="6.51" length="9.03" shape="708.00,686.40 708.35,688.85 709.40,690.60 711.15,691.65 713.60,692.00"/>
    </edge>
    <edge id=":I4_9" function="internal">
        <lane id=":I4_9_0" index="0" speed="16.67" length="27.20" shape="708.00,686.40 708.00,713.60"/>
        <lane id=":I4_9_1" index="1" speed="16.67" length="27.20" shape="704.80,686.40 704.80,713.60"/>
    </edge>
    <edge id=":I4_11" function="internal">
        <lane id=":I4_11_0" index="0" speed="10.36" length="24.51" shape="701.60,686.40 700.65,693.05 697.80,697.80 693.05,700.65 686.40,701.60"/>
    </edge>
    <edge id=":I4_12" function="internal">
        <lane id=":I4_12_0" index="0" speed="6.51" length="9.03" shape="686.40,692.00 688.85,691.65 690.60,690.60 691.65,688.85 692.00,686.40"/>
    </edge>
    <edge id=":I4_13" function="internal">
        <lane id=":I4_13_0" index="0" speed="16.67" length="27.20" shape="686.40,692.00 713.60,692.00"/>
        <lane id=":I4_13_1" index="1" speed="16.67" length="27.20" shape="686.40,695.20 713.60,695.20"/>
    </edge>
    <edge id=":I4_15" function="internal">
        <lane id=":I4_15_0" index="0" speed="10.36" length="24.51" shape="686.40,698.40 693.05,699.35 697.80,702.20 700.65,706.95 701.60,713.60"/>
    </edge>
    <edge id=":I5_0" function="internal">
        <lane id=":I5_0_0" index="0" speed="6.51" length="9.03" shape="1192.00,713.60 1191.65,711.15 1190.60,709.40 1188.85,708.35 1186.40,708.00"/>
    </edge>
    <edge id=":I5_1" function="internal">
        <lane id=":I5_1_0" index="0" speed="16.67" length="27.20" shape="1192.00,713.60 1192.00,686.40"/>
        <lane id=":I5_1_1" index="1" speed="16.67" length="27.20" shape="1195.20,713.60 1195.20,686.40"/>
    </edge>
    <edge id=":I5_3" function="internal">
        <lane id=":I5_3_0" index="0" speed="10.36" length="24.51" shape="1198.40,713.60 1199.35,706.95 1202.20,702.20 1206.95,699.35 1213.60,698.40"/>
    </edge>
    <edge id=":I5_4" function="internal">
        <lane id=":I5_4_0" index="0" speed="6.51" length="9.03" shape="1213.60,708.00 1211.15,708.35 1209.40,709.40 1208.35,711.15 1208.00,713.60"/>
    </edge>
    <edge id=":I5_5" function="internal">
        <lane id=":I5_5_0" index="0" speed="16.67" length="27.20" shape="1213.60,708.00 1186.40,708.00"/>
        <lane id=":I5_5_1" index="1" speed="16.67" length="27.20" shape="1213.60,704.80 1186.40,704.80"/>
    </edge>
    <edge id=":I5_7" function="internal">
        <lane id=":I5_7_0" index="0" speed="10.36" length="24.51" shape="1213.60,701.60 1206.95,700.65 1202.20,697.80 1199.35,693.05 1198.40,686.40"/>
    </edge>
    <edge id=":I5_8" function="internal">
        <lane id=":I5_8_0" index="0" speed="6.51" length="9.03" shape="1208.00,686.40 1208.35,688.85 1209.40,690.60 1211.15,691.65 1213.60,692.00"/>
    </edge>
    <edge id=":I5_9" function="internal">
        <lane id=":I5_9_0" index="0" speed="16.67" length="27.20" shape="1208.00,686.40 1208.00,713.60"/>
        <lane id=":I5_9_1" index="1" speed="16.67" length="27.20" shape="1204.80,686.40 1204.80,713.60"/>
    </edge>
    <edge id=":I5_11" function="internal">
        <lane id=":I5_11_0" index="0" speed="10.36" length="24.51" shape="1201.60,686.40 1200.65,693.05 1197.80,697.80 1193.05,700.65 1186.40,701.60"/>
    </edge>
    <edge id=":I5_12" function="internal">
        <lane id=":I5_12_0" index="0" speed="6.51" length="9.03" shape="1186.40,692.00 1188.85,691.65 1190.60,690.60 1191.65,688.85 1192.00,686.40"/>
    </edge>
    <edge id=":I5_13" function="internal">
        <lane id=":I5_13_0" index="0" speed="16.67" length="27.20" shape="1186.40,692.00 1213.60,692.00"/>
        <lane id=":I5_13_1" index="1" speed="16.67" length="27.20" shape="1186.40,695.20 1213.60,695.20"/>
    </edge>
    <edge id=":I5_15" function="internal">
        <lane id=":I5_15_0" index="0" speed="10.36" length="24.51" shape="1186.40,698.40 1193.05,699.35 1197.80,702.20 1200.65,706.95 1201.60,713.60"/>
    </edge>
    <edge id=":I6_0" function="internal">
        <lane id=":I6_0_0" index="0" speed="6.51" length="9.03" shape="192.00,1213.60 191.65,1211.15 190.60,1209.40 188.85,1208.35 186.40,1208.00"/>
    </edge>
    <edge id=":I6_1" function="internal">
        <lane id=":I6_1_0" index="0" speed="16.67" length="27.20" shape="192.00,1213.60 192.00,1186.40"/>
        <lane id=":I6_1_1" index="1" speed="16.67" length="27.20" shape="195.20,1213.60 195.20,1186.40"/>
    </edge>
    <edge id=":I6_3" function="internal">
        <lane id=":I6_3_0" index="0" speed="10.36" length="24.51" shape="198.40,1213.60 199.35,1206.95 202.20,1202.20 206.95,1199.35 213.60,1198.40"/>
    </edge>
    <edge id=":I6_4" function="internal">
        <lane id=":I6_4_0" index="0" speed="6.51" length="9.03" shape="213.60,1208.00 211.15,1208.35 209.40,1209.40 208.35,1211.15 208.00,1213.60"/>
    </edge>
    <edge id=":I6_5" function="internal">
        <lane id=":I6_5_0" index="0" speed="16.67" length="27.20" shape="213.60,1208.00 186.40,1208.00"/>
        <lane id=":I6_5_1" index="1" speed="16.67" length="27.20" shape="213.60,1204.80 186.40,1204.80"/>
    </edge>
    <edge id=":I6_7" function="internal">
        <lane id=":I6_7_0" index="0" speed="10.36" length="24.51" shape="213.60,1201.60 206.95,1200.65 202.20,1197.80 199.35,1193.05 198.40,1186.40"/>
    </edge>
    <edge id=":I6_8" function="internal">
        <lane id=":I6_8_0" index="0" speed="6.51" length="9.03" shape="208.00,1186.40 208.35,1188.85 209.40,1190.60 211.15,1191.65 213.60,1192.00"/>
    </edge>
    <edge id=":I6_9" function="internal">
        <lane id=":I6_9_0" index="0" speed="16.67" length="27.20" shape="208.00,1186.40 208.00,1213.60"/>
        <lane id=":I6_9_1" index="1" speed="16.67" length="27.20" shape="204.80,1186.40 204.80,1213.60"/>
    </edge>
    <edge id=":I6_11" function="internal">
        <lane id=":I6_11_0" index="0" speed="10.36" length="24.51" shape="201.60,1186.40 200.65,1193.05 197.80,1197.80 193.05,1200.65 186.40,1201.60"/>
    </edge>
    <edge id=":I6_12" function="internal">
        <lane id=":I6_12_0" index="0" speed="6.51" length="9.03" shape="186.40,1192.00 188.85,1191.65 190.60,1190.60 191.65,1188.85 192.00,1186.40"/>
    </edge>
    <edge id=":I6_13" function="internal">
        <lane id=":I6_13_0" index="0" speed="16.67" length="27.20" shape="186.40,1192.00 213.60,1192.00"/>
        <lane id=":I6_13_1" index="1" speed="16.67" length="27.20" shape="186.40,1195.20 213.60,1195.20"/>
    </edge>
    <edge id=":I6_15" function="internal">
        <lane id=":I6_15_0" index="0" speed="10.36" length="24.51" shape="186.40,1198.40 193.05,1199.35 197.80,1202.20 200.65,1206.95 201.60,1213.60"/>
    </edge>
    <edge id=":I7_0" function="internal">
        <lane id=":I7_0_0" index="0" speed="6.51" length="9.03" shape="692.00,1213.60 691.65,1211.15 690.60,1209.40 688.85,1208.35 686.40,1208.00"/>
    </edge>
    <edge id=":I7_1" function="internal">
        <lane id=":I7_1_0" index="0" speed="16.67" length="27.20" shape="692.00,1213.60 692.00,1186.40"/>
        <lane id=":I7_1_1" index="1" speed="16.67" length="27.20" shape="695.20,1213.60 695.20,1186.40"/>
    </edge>
    <edge id=":I7_3" function="internal">
        <lane id=":I7_3_0" index="0" speed="10.36" length="24.51" shape="698.40,1213.60 699.35,1206.95 702.20,1202.20 706.95,1199.35 713.60,1198.40"/>
    </edge>
    <edge id=":I7_4" function="internal">
        <lane id=":I7_4_0" index="0" speed="6.51" length="9.03" shape="713.60,1208.00 711.15,1208.35 709.40,1209.40 708.35,1211.15 708.00,1213.60"/>
    </edge>
    <edge id=":I7_5" function="internal">
        <lane id=":I7_5_0" index="0" speed="16.67" length="27.20" shape="713.60,1208.00 686.40,1208.00"/>
        <lane id=":I7_5_1" index="1" speed="16.67" length="27.20" shape="713.60,1204.80 686.40,1204.80"/>
    </edge>
    <edge id=":I7_7" function="internal">
        <lane id=":I7_7_0" index="0" speed="10.36" length="24.51" shape="713.60,1201.60 706.95,1200.65 702.20,1197.80 699.35,1193.05 698.40,1186.40"/>
    </edge>
    <edge id=":I7_8" function="internal">
        <lane id=":I7_8_0" index="0" speed="6.51" length="9.03" shape="708.00,1186.40 708.35,1188.85 709.40,1190.60 711.15,1191.65 713.60,1192.00"/>
    </edge>
    <edge id=":I7_9" function="internal">
        <lane id=":I7_9_0" index="0" speed="16.67" length="27.20" shape="708.00,1186.40 708.00,1213.60"/>
        <lane id=":I7_9_1" index="1" speed="16.67" length="27.20" shape="704.80,1186.40 704.80,1213.60"/>
    </edge>
    <edge id=":I7_11" function="internal">
        <lane id=":I7_11_0" index="0" speed="10.36" length="24.51" shape="701.60,1186.40 700.65,1193.05 697.80,1197.80 693.05,1200.65 686.40,1201.60"/>
    </edge>
    <edge id=":I7_12" function="internal">
        <lane id=":I7_12_0" index="0" speed="6.51" length="9.03" shape="686.40,1192.00 688.85,1191.65 690.60,1190.60 691.65,1188.85 692.00,1186.40"/>
    </edge>
    <edge id=":I7_13" function="internal">
        <lane id=":I7_13_0" index="0" speed="16.67" length="27.20" shape="686.40,1192.00 713.60,1192.00"/>
        <lane id=":I7_13_1" index="1" speed="16.67" length="27.20" shape="686.40,1195.20 713.60,1195.20"/>
    </edge>
    <edge id=":I7_15" function="internal">
        <lane id=":I7_15_0" index="0" speed="10.36" length="24.51" shape="686.40,1198.40 693.05,1199.35 697.80,1202.20 700.65,1206.95 701.60,1213.60"/>
    </edge>
    <edge id=":I8_0" function="internal">
        <lane id=":I8_0_0" index="0" speed="6.51" length="9.03" shape="1192.00,1213.60 1191.65,1211.15 1190.60,1209.40 1188.85,1208.35 1186.40,1208.00"/>
    </edge>
    <edge id=":I8_1" function="internal">
        <lane id=":I8_1_0" index="0" speed="16.67" length="27.20" shape="1192.00,1213.60 1192.00,1186.40"/>
        <lane id=":I8_1_1" index="1" speed="16.67" length="27.20" shape="1195.20,1213.60 1195.20,1186.40"/>
    </edge>
    <edge id=":I8_3" function="internal">
        <lane id=":I8_3_0" index="0" speed="10.36" length="24.51" shape="1198.40,1213.60 1199.35,1206.95 1202.20,1202.20 1206.95,1199.35 1213.60,1198.40"/>
    </edge>
    <edge id=":I8_4" function="internal">
        <lane id=":I8_4_0" index="0" speed="6.51" length="9.03" shape="1213.60,1208.00 1211.15,1208.35 1209.40,1209.40 1208.35,1211.15 1208.00,1213.60"/>
    </edge>
    <edge id=":I8_5" function="internal">
        <lane id=":I8_5_0" index="0" speed="16.67" length="27.20" shape="1213.60,1208.00 1186.40,1208.00"/>
        <lane id=":I8_5_1" index="1" speed="16.67" length="27.20" shape="1213.60,1204.80 1186.40,1204.80"/>
    </edge>
    <edge id=":I8_7" function="internal">
        <lane id=":I8_7_0" index="0" speed="10.36" length="24.51" shape="1213.60,1201.60 1206.95,1200.65 1202.20,1197.80 1199.35,1193.05 1198.40,1186.40"/>
    </edge>
    <edge id=":I8_8" function="internal">
        <lane id=":I8_8_0" index="0" speed="6.51" length="9.03" shape="1208.00,1186.40 1208.35,1188.85 1209.40,1190.60 1211.15,1191.65 1213.60,1192.00"/>
    </edge>
    <edge id=":I8_9" function="internal">
        <lane id=":I8_9_0" index="0" speed="16.67" length="27.20" shape="1208.00,1186.40 1208.00,1213.60"/>
        <lane id=":I8_9_1" index="1" speed="16.67" length="27.20" shape="1204.80,1186.40 1204.80,1213.60"/>
    </edge>
    <edge id=":I8_11" function="internal">
        <lane id=":I8_11_0" index="0" speed="10.36" length="24.51" shape="1201.60,1186.40 1200.65,1193.05 1197.80,1197.80 1193.05,1200.65 1186.40,1201.60"/>
    </edge>
    <edge id=":I8_12" function="internal">
        <lane id=":I8_12_0" index="0" speed="6.51" length="9.03" shape="1186.40,1192.00 1188.85,1191.65 1190.60,1190.60 1191.65,1188.85 1192.00,1186.40"/>
    </edge>
    <edge id=":I8_13" function="internal">
        <lane id=":I8_13_0" index="0" speed="16.67" length="27.20" shape="1186.40,1192.00 1213.60,1192.00"/>
        <lane id=":I8_13_1" index="1" speed="16.67" length="27.20" shape="1186.40,1195.20 1213.60,1195.20"/>
    </edge>
    <edge id=":I8_15" function="internal">
        <lane id=":I8_15_0" index="0" speed="10.36" length="24.51" shape="1186.40,1198.40 1193.05,1199.35 1197.80,1202.20 1200.65,1206.95 1201.60,1213.60"/>
    </edge>
    <edge id=":P0_0" function="internal">
        <lane id=":P0_0_0" index="0" speed="3.65" length="4.67" shape="198.40,0.00 199.20,-1.20 200.00,-1.60 200.80,-1.20 201.60,0.00"/>
    </edge>
    <edge id=":P1_0" function="internal">
        <lane id=":P1_0_0" index="0" speed="3.65" length="4.67" shape="698.40,0.00 699.20,-1.20 700.00,-1.60 700.80,-1.20 701.60,0.00"/>
    </edge>
    <edge id=":P10_0" function="internal">
        <lane id=":P10_0_0" index="0" speed="3.65" length="4.67" shape="1400.00,698.40 1401.20,699.20 1401.60,700.00 1401.20,700.80 1400.00,701.60"/>
    </edge>
    <edge id=":P11_0" function="internal">
        <lane id=":P11_0_0" index="0" speed="3.65" length="4.67" shape="1400.00,1198.40 1401.20,1199.20 1401.60,1200.00 1401.20,1200.80 1400.00,1201.60"/>
    </edge>
    <edge id=":P2_0" function="internal">
        <lane id=":P2_0_0" index="0" speed="3.65" length="4.67" shape="1198.40,0.00 1199.20,-1.20 1200.00,-1.60 1200.80,-1.20 1201.60,0.00"/>
    </edge>
    <edge id=":P3_0" function="internal">
        <lane id=":P3_0_0" index="0" speed="3.65" length="4.67" shape="201.60,1400.00 200.80,1401.20 200.00,1401.60 199.20,1401.20 198.40,1400.00"/>
    </edge>
    <edge id=":P4_0" function="internal">
        <lane id=":P4_0_0" index="0" speed="3.65" length="4.67" shape="701.60,1400.00 700.80,1401.20 700.00,1401.60 699.20,1401.20 698.40,1400.00"/>
    </edge>
    <edge id=":P5_0" function="internal">
        <lane id=":P5_0_0" index="0" speed="3.65" length="4.67" shape="1201.60,1400.00 1200.80,1401.20 1200.00,1401.60 1199.20,1401.20 1198.40,1400.00"/>
    </edge>
    <edge id=":P6_0" function="internal">
        <lane id=":P6_0_0" index="0" speed="3.65" length="4.67" shape="0.00,201.60 -1.20,200.80 -1.60,200.00 -1.20,199.20 0.00,198.40"/>
    </edge>
    <edge id=":P7_0" function="internal">
        <lane id=":P7_0_0" index="0" speed="3.65" length="4.67" shape="0.00,701.60 -1.20,700.80 -1.60,700.00 -1.20,699.20 0.00,698.40"/>
    </edge>
    <edge id=":P8_0" function="internal">
        <lane id=":P8_0_0" index="0" speed="3.65" length="4.67" shape="0.00,1201.60 -1.20,1200.80 -1.60,1200.00 -1.20,1199.20 0.00,1198.40"/>
    </edge>
    <edge id=":P9_0" function="internal">
        <lane id=":P9_0_0" index="0" speed="3.65" length="4.67" shape="1400.00,198.40 1401.20,199.20 1401.60,200.00 1401.20,200.80 1400.00,201.60"/>
    </edge>

    <edge id="I0_I1" from="I0" to="I1" priority="-1" type="a">
        <lane id="I0_I1_0" index="0" speed="16.67" length="472.80" shape="213.60,192.00 686.40,192.00"/>
        <lane id="I0_I1_1" index="1" speed="16.67" length="472.80" shape="213.60,195.20 686.40,195.20"/>
        <lane id="I0_I1_2" index="2" speed="16.67" length="472.80" shape="213.60,198.40 686.40,198.40"/>
    </edge>
    <edge id="I0_I3" from="I0" to="I3" priority="-1" type="a">
        <lane id="I0_I3_0" index="0" speed="16.67" length="472.80" shape="208.00,213.60 208.00,686.40"/>
        <lane id="I0_I3_1" index="1" speed="16.67" length="472.80" shape="204.80,213.60 204.80,686.40"/>
        <lane id="I0_I3_2" index="2" speed="16.67" length="472.80" shape="201.60,213.60 201.60,686.40"/>
    </edge>
    <edge id="I0_P0" from="I0" to="P0" priority="-1" type="a">
        <lane id="I0_P0_0" index="0" speed="16.67" length="186.40" shape="192.00,186.40 192.00,0.00"/>
        <lane id="I0_P0_1" index="1" speed="16.67" length="186.40" shape="195.20,186.40 195.20,0.00"/>
        <lane id="I0_P0_2" index="2" speed="16.67" length="186.40" shape="198.40,186.40 198.40,0.00"/>
    </edge>
    <edge id="I0_P6" from="I0" to="P6" priority="-1" type="a">
        <lane id="I0_P6_0" index="0" speed="16.67" length="186.40" shape="186.40,208.00 0.00,208.00"/>
        <lane id="I0_P6_1" index="1" speed="16.67" length="186.40" shape="186.40,204.80 0.00,204.80"/>
        <lane id="I0_P6_2" index="2" speed="16.67" length="186.40" shape="186.40,201.60 0.00,201.60"/>
    </edge>
    <edge id="I1_I0" from="I1" to="I0" priority="-1" type="a">
        <lane id="I1_I0_0" index="0" speed="16.67" length="472.80" shape="686.40,208.00 213.60,208.00"/>
        <lane id="I1_I0_1" index="1" speed="16.67" length="472.80" shape="686.40,204.80 213.60,204.80"/>
        <lane id="I1_I0_2" index="2" speed="16.67" length="472.80" shape="686.40,201.60 213.60,201.60"/>
    </edge>
    <edge id="I1_I2" from="I1" to="I2" priority="-1" type="a">
        <lane id="I1_I2_0" index="0" speed="16.67" length="472.80" shape="713.60,192.00 1186.40,192.00"/>
        <lane id="I1_I2_1" index="1" speed="16.67" length="472.80" shape="713.60,195.20 1186.40,195.20"/>
        <lane id="I1_I2_2" index="2" speed="16.67" length="472.80" shape="713.60,198.40 1186.40,198.40"/>
    </edge>