<connections>
  <connection from="P0_I0" to="I0_I3" fromLane="0" toLane="0"/>
  <connection from="I3_I0" to="I0_P0" fromLane="0" toLane="0"/>
  <connection from="P0_I0" to="I0_I3" fromLane="1" toLane="1"/>
  <connection from="I3_I0" to="I0_P0" fromLane="1" toLane="1"/>
  <connection from="P6_I0" to="I0_I1" fromLane="0" toLane="0"/>
  <connection from="I1_I0" to="I0_P6" fromLane="0" toLane="0"/>
  <connection from="P6_I0" to="I0_I1" fromLane="1" toLane="1"/>
  <connection from="I1_I0" to="I0_P6" fromLane="1" toLane="1"/>
  <connection from="P0_I0" to="I0_P6" fromLane="2" toLane="2"/>
  <connection from="I3_I0" to="I0_I1" fromLane="2" toLane="2"/>
  <connection from="P6_I0" to="I0_I3" fromLane="2" toLane="2"/>
  <connection from="I1_I0" to="I0_P0" fromLane="2" toLane="2"/>
  <connection from="P0_I0" to="I0_I1" fromLane="0" toLane="0"/>
  <connection from="I3_I0" to="I0_P6" fromLane="0" toLane="0"/>
  <connection from="P6_I0" to="I0_P0" fromLane="0" toLane="0"/>
  <connection from="I1_I0" to="I0_I3" fromLane="0" toLane="0"/>
  <connection from="P1_I1" to="I1_I4" fromLane="0" toLane="0"/>
  <connection from="I4_I1" to="I1_P1" fromLane="0" toLane="0"/>
  <connection from="P1_I1" to="I1_I4" fromLane="1" toLane="1"/>
  <connection from="I4_I1" to="I1_P1" fromLane="1" toLane="1"/>
  <connection from="I0_I1" to="I1_I2" fromLane="0" toLane="0"/>
  <connection from="I2_I1" to="I1_I0" fromLane="0" toLane="0"/>
  <connection from="I0_I1" to="I1_I2" fromLane="1" toLane="1"/>
  <connection from="I2_I1" to="I1_I0" fromLane="1" toLane="1"/>
  <connection from="P1_I1" to="I1_I0" fromLane="2" toLane="2"/>
  <connection from="I4_I1" to="I1_I2" fromLane="2" toLane="2"/>
  <connection from="I0_I1" to="I1_I4" fromLane="2" toLane="2"/>
  <connection from="I2_I1" to="I1_P1" fromLane="2" toLane="2"/>
  <connection from="P1_I1" to="I1_I2" fromLane="0" toLane="0"/>
  <connection from="I4_I1" to="I1_I0" fromLane="0" toLane="0"/>
  <connection from="I0_I1" to="I1_P1" fromLane="0" toLane="0"/>
  <connection from="I2_I1" to="I1_I4" fromLane="0" toLane="0"/>
  <connection from="P2_I2" to="I2_I5" fromLane="0" toLane="0"/>
  <connection from="I5_I2" to="I2_P2" fromLane="0" toLane="0"/>
  <connection from="P2_I2" to="I2_I5" fromLane="1" toLane="1"/>
  <connection from="I5_I2" to="I2_P2" fromLane="1" toLane="1"/>
  <connection from="I1_I2" to="I2_P9" fromLane="0" toLane="0"/>
  <connection from="P9_I2" to="I2_I1" fromLane="0" toLane="0"/>
  <connection from="I1_I2" to="I2_P9" fromLane="1" toLane="1"/>
  <connection from="P9_I2" to="I2_I1" fromLane="1" toLane="1"/>
  <connection from="P2_I2" to="I2_I1" fromLane="2" toLane="2"/>
  <connection from="I5_I2" to="I2_P9" fromLane="2" toLane="2"/>
  <connection from="I1_I2" to="I2_I5" fromLane="2" toLane="2"/>
  <connection from="P9_I2" to="I2_P2" fromLane="2" toLane="2"/>
  <connection from="P2_I2" to="I2_P9" fromLane="0" toLane="0"/>
  <connection from="I5_I2" to="I2_I1" fromLane="0" toLane="0"/>
  <connection from="I1_I2" to="I2_P2" fromLane="0" toLane="0"/>
  <connection from="P9_I2" to="I2_I5" fromLane="0" toLane="0"/>
  <connection from="I0_I3" to="I3_I6" fromLane="0" toLane="0"/>
  <connection from="I6_I3" to="I3_I0" fromLane="0" toLane="0"/>
  <connection from="I0_I3" to="I3_I6" fromLane="1" toLane="1"/>
  <connection from="I6_I3" to="I3_I0" fromLane="1" toLane="1"/>
  <connection from="P7_I3" to="I3_I4" fromLane="0" toLane="0"/>
  <connection from="I4_I3" to="I3_P7" fromLane="0" toLane="0"/>
  <connection from="P7_I3" to="I3_I4" fromLane="1" toLane="1"/>
  <connection from="I4_I3" to="I3_P7" fromLane="1" toLane="1"/>
  <connection from="I0_I3" to="I3_P7" fromLane="2" toLane="2"/>
  <connection from="I6_I3" to="I3_I4" fromLane="2" toLane="2"/>
  <connection from="P7_I3" to="I3_I6" fromLane="2" toLane="2"/>
  <connection from="I4_I3" to="I3_I0" fromLane="2" toLane="2"/>
  <connection from="I0_I3" to="I3_I4" fromLane="0" toLane="0"/>
  <connection from="I6_I3" to="I3_P7" fromLane="0" toLane="0"/>
  <connection from="P7_I3" to="I3_I0" fromLane="0" toLane="0"/>
  <connection from="I4_I3" to="I3_I6" fromLane="0" toLane="0"/>
  <connection from="I1_I4" to="I4_I7" fromLane="0" toLane="0"/>
  <connection from="I7_I4" to="I4_I1" fromLane="0" toLane="0"/>
  <connection from="I1_I4" to="I4_I7" fromLane="1" toLane="1"/>
  <connection from="I7_I4" to="I4_I1" fromLane="1" toLane="1"/>
  <connection from="I3_I4" to="I4_I5" fromLane="0" toLane="0"/>
  <connection from="I5_I4" to="I4_I3" fromLane="0" toLane="0"/>
  <connection from="I3_I4" to="I4_I5" fromLane="1" toLane="1"/>
  <connection from="I5_I4" to="I4_I3" fromLane="1" toLane="1"/>
  <connection from="I1_I4" to="I4_I3" fromLane="2" toLane="2"/>
  <connection from="I7_I4" to="I4_I5" fromLane="2" toLane="2"/>
  <connection from="I3_I4" to="I4_I7" fromLane="2" toLane="2"/>
  <connection from="I5_I4" to="I4_I1" fromLane="2" toLane="2"/>
  <connection from="I1_I4" to="I4_I5" fromLane="0" toLane="0"/>
  <connection from="I7_I4" to="I4_I3" fromLane="0" toLane="0"/>
  <connection from="I3_I4" to="I4_I1" fromLane="0" toLane="0"/>
  <connection from="I5_I4" to="I4_I7" fromLane="0" toLane="0"/>
  <connection from="I2_I5" to="I5_I8" fromLane="0" toLane="0"/>
  <connection from="I8_I5" to="I5_I2" fromLane="0" toLane="0"/>
  <connection from="I2_I5" to="I5_I8" fromLane="1" toLane="1"/>
  <connection from="I8_I5" to="I5_I2" fromLane="1" toLane="1"/>
  <connection from="I4_I5" to="I5_P10" fromLane="0" toLane="0"/>
  <connection from="P10_I5" to="I5_I4" fromLane="0" toLane="0"/>
  <connection from="I4_I5" to="I5_P10" fromLane="1" toLane="1"/>
  <connection from="P10_I5" to="I5_I4" fromLane="1" toLane="1"/>
  <connection from="I2_I5" to="I5_I4" fromLane="2" toLane="2"/>
  <connection from="I8_I5" to="I5_P10" fromLane="2" toLane="2"/>
  <connection from="I4_I5" to="I5_I8" fromLane="2" toLane="2"/>
  <connection from="P10_I5" to="I5_I2" fromLane="2" toLane="2"/>
  <connection from="I2_I5" to="I5_P10" fromLane="0" toLane="0"/>
  <connection from="I8_I5" to="I5_I4" fromLane="0" toLane="0"/>
  <connection from="I4_I5" to="I5_I2" fromLane="0" toLane="0"/>
  <connection from="P10_I5" to="I5_I8" fromLane="0" toLane="0"/>
  <connection from="I3_I6" to="I6_P3" fromLane="0" toLane="0"/>
  <connection from="P3_I6" to="I6_I3" fromLane="0" toLane="0"/>
  <connection from="I3_I6" to="I6_P3" fromLane="1" toLane="1"/>
  <connection from="P3_I6" to="I6_I3" fromLane="1" toLane="1"/>
  <connection from="P8_I6" to="I6_I7" fromLane="0" toLane="0"/>
  <connection from="I7_I6" to="I6_P8" fromLane="0" toLane="0"/>
  <connection from="P8_I6" to="I6_I7" fromLane="1" toLane="1"/>
  <connection from="I7_I6" to="I6_P8" fromLane="1" toLane="1"/>
  <connection from="I3_I6" to="I6_P8" fromLane="2" toLane="2"/>
  <connection from="P3_I6" to="I6_I7" fromLane="2" toLane="2"/>
  <connection from="P8_I6" to="I6_P3" fromLane="2" toLane="2"/>
  <connection from="I7_I6" to="I6_I3" fromLane="2" toLane="2"/>
  <connection from="I3_I6" to="I6_I7" fromLane="0" toLane="0"/>
  <connection from="P3_I6" to="I6_P8" fromLane="0" toLane="0"/>
  <connection from="P8_I6" to="I6_I3" fromLane="0" toLane="0"/>
  <connection from="I7_I6" to="I6_P3" fromLane="0" toLane="0"/>
  <connection from="I4_I7" to="I7_P4" fromLane="0" toLane="0"/>
  <connection from="P4_I7" to="I7_I4" fromLane="0" toLane="0"/>
  <connection from="I4_I7" to="I7_P4" fromLane="1" toLane="1"/>
  <connection from="P4_I7" to="I7_I4" fromLane="1" toLane="1"/>
  <connection from="I6_I7" to="I7_I8" fromLane="0" toLane="0"/>
  <connection from="I8_I7" to="I7_I6" fromLane="0" toLane="0"/>
  <connection from="I6_I7" to="I7_I8" fromLane="1" toLane="1"/>
  <connection from="I8_I7" to="I7_I6" fromLane="1" toLane="1"/>
  <connection from="I4_I7" to="I7_I6" fromLane="2" toLane="2"/>
  <connection from="P4_I7" to="I7_I8" fromLane="2" toLane="2"/>
  <connection from="I6_I7" to="I7_P4" fromLane="2" toLane="2"/>
  <connection from="I8_I7" to="I7_I4" fromLane="2" toLane="2"/>
  <connection from="I4_I7" to="I7_I8" fromLane="0" toLane="0"/>
  <connection from="P4_I7" to="I7_I6" fromLane="0" toLane="0"/>
  <connection from="I6_I7" to="I7_I4" fromLane="0" toLane="0"/>
  <connection from="I8_I7" to="I7_P4" fromLane="0" toLane="0"/>
  <connection from="I5_I8" to="I8_P5" fromLane="0" toLane="0"/>
  <connection from="P5_I8" to="I8_I5" fromLane="0" toLane="0"/>
  <connection from="I5_I8" to="I8_P5" fromLane="1" toLane="1"/>
  <connection from="P5_I8" to="I8_I5" fromLane="1" toLane="1"/>
  <connection from="I7_I8" to="I8_P11" fromLane="0" toLane="0"/>
  <connection from="P11_I8" to="I8_I7" fromLane="0" toLane="0"/>
  <connection from="I7_I8" to="I8_P11" fromLane="1" toLane="1"/>
  <connection from="P11_I8" to="I8_I7" fromLane="1" toLane="1"/>
  <connection from="I5_I8" to="I8_I7" fromLane="2" toLane="2"/>
  <connection from="P5_I8" to="I8_P11" fromLane="2" toLane="2"/>
  <connection from="I7_I8" to="I8_P5" fromLane="2" toLane="2"/>
  <connection from="P11_I8" to="I8_I5" fromLane="2" toLane="2"/>
  <connection from="I5_I8" to="I8_P11" fromLane="0" toLane="0"/>
  <connection from="P5_I8" to="I8_I7" fromLane="0" toLane="0"/>
  <connection from="I7_I8" to="I8_I5" fromLane="0" toLane="0"/>
  <connection from="P11_I8" to="I8_P5" fromLane="0" toLane="0"/>
</connections>
