<types>
  <type id="a" numLanes="3" speed="16.67"/>
</types>
