<additional>
  <tlLogic id="I0" programID="0" offset="8" type="static">
    <phase duration="25" state="GGGrrrrrGGGrrrrr"/>
    <phase duration="3" state="yyyrrrrryyyrrrrr"/>
    <phase duration="15" state="rrrGrrrrrrrGrrrr"/>
    <phase duration="3" state="rrryrrrrrrryrrrr"/>
    <phase duration="25" state="rrrrGGGrrrrrGGGr"/>
    <phase duration="3" state="rrrryyyrrrrryyyr"/>
    <phase duration="15" state="rrrrrrrGrrrrrrrG"/>
    <phase duration="3" state="rrrrrrryrrrrrrry"/>
  </tlLogic>
  <tlLogic id="I1" programID="0" offset="4" type="static">
    <phase duration="25" state="GGGrrrrrGGGrrrrr"/>
    <phase duration="3" state="yyyrrrrryyyrrrrr"/>
    <phase duration="15" state="rrrGrrrrrrrGrrrr"/>
    <phase duration="3" state="rrryrrrrrrryrrrr"/>
    <phase duration="25" state="rrrrGGGrrrrrGGGr"/>
    <phase duration="3" state="rrrryyyrrrrryyyr"/>
    <phase duration="15" state="rrrrrrrGrrrrrrrG"/>
    <phase duration="3" state="rrrrrrryrrrrrrry"/>
  </tlLogic>
  <tlLogic id="I2" programID="0" offset="4" type="static">
    <phase duration="25" state="GGGrrrrrGGGrrrrr"/>
    <phase duration="3" state="yyyrrrrryyyrrrrr"/>
    <phase duration="15" state="rrrGrrrrrrrGrrrr"/>
    <phase duration="3" state="rrryrrrrrrryrrrr"/>
    <phase duration="25" state="rrrrGGGrrrrrGGGr"/>
    <phase duration="3" state="rrrryyyrrrrryyyr"/>
    <phase duration="15" state="rrrrrrrGrrrrrrrG"/>
    <phase duration="3" state="rrrrrrryrrrrrrry"/>
  </tlLogic>
  <tlLogic id="I3" programID="0" offset="11" type="static">
    <phase duration="25" state="GGGrrrrrGGGrrrrr"/>
    <phase duration="3" state="yyyrrrrryyyrrrrr"/>
    <phase duration="15" state="rrrGrrrrrrrGrrrr"/>
    <phase duration="3" state="rrryrrrrrrryrrrr"/>
    <phase duration="25" state="rrrrGGGrrrrrGGGr"/>
    <phase duration="3" state="rrrryyyrrrrryyyr"/>
    <phase duration="15" state="rrrrrrrGrrrrrrrG"/>
    <phase duration="3" state="rrrrrrryrrrrrrry"/>
  </tlLogic>
  <tlLogic id="I4" programID="0" offset="6" type="static">
    <phase duration="25" state="GGGrrrrrGGGrrrrr"/>
    <phase duration="3" state="yyyrrrrryyyrrrrr"/>
    <phase duration="15" state="rrrGrrrrrrrGrrrr"/>
    <phase duration="3" state="rrryrrrrrrryrrrr"/>
    <phase duration="25" state="rrrrGGGrrrrrGGGr"/>
    <phase duration="3" state="rrrryyyrrrrryyyr"/>
    <phase duration="15" state="rrrrrrrGrrrrrrrG"/>
    <phase duration="3" state="rrrrrrryrrrrrrry"/>
  </tlLogic>
  <tlLogic id="I5" programID="0" offset="7" type="static">
    <phase duration="25" state="GGGrrrrrGGGrrrrr"/>
    <phase duration="3" state="yyyrrrrryyyrrrrr"/>
    <phase duration="15" state="rrrGrrrrrrrGrrrr"/>
    <phase duration="3" state="rrryrrrrrrryrrrr"/>
    <phase duration="25" state="rrrrGGGrrrrrGGGr"/>
    <phase duration="3" state="rrrryyyrrrrryyyr"/>
    <phase duration="15" state="rrrrrrrGrrrrrrrG"/>
    <phase duration="3" state="rrrrrrryrrrrrrry"/>
  </tlLogic>
  <tlLogic id="I6" programID="0" offset="15" type="static">
    <phase duration="25" state="GGGrrrrrGGGrrrrr"/>
    <phase duration="3" state="yyyrrrrryyyrrrrr"/>
    <phase duration="15" state="rrrGrrrrrrrGrrrr"/>
    <phase duration="3" state="rrryrrrrrrryrrrr"/>
    <phase duration="25" state="rrrrGGGrrrrrGGGr"/>
    <phase duration="3" state="rrrryyyrrrrryyyr"/>
    <phase duration="15" state="rrrrrrrGrrrrrrrG"/>
    <phase duration="3" state="rrrrrrryrrrrrrry"/>
  </tlLogic>
  <tlLogic id="I7" programID="0" offset="11" type="static">
    <phase duration="25" state="GGGrrrrrGGGrrrrr"/>
    <phase duration="3" state="yyyrrrrryyyrrrrr"/>
    <phase duration="15" state="rrrGrrrrrrrGrrrr"/>
    <phase duration="3" state="rrryrrrrrrryrrrr"/>
    <phase duration="25" state="rrrrGGGrrrrrGGGr"/>
    <phase duration="3" state="rrrryyyrrrrryyyr"/>
    <phase duration="15" state="rrrrrrrGrrrrrrrG"/>
    <phase duration="3" state="rrrrrrryrrrrrrry"/>
  </tlLogic>
  <tlLogic id="I8" programID="0" offset="8" type="static">
    <phase duration="25" state="GGGrrrrrGGGrrrrr"/>
    <phase duration="3" state="yyyrrrrryyyrrrrr"/>
    <phase duration="15" state="rrrGrrrrrrrGrrrr"/>
    <phase duration="3" state="rrryrrrrrrryrrrr"/>
    <phase duration="25" state="rrrrGGGrrrrrGGGr"/>
    <phase duration="3" state="rrrryyyrrrrryyyr"/>
    <phase duration="15" state="rrrrrrrGrrrrrrrG"/>
    <phase duration="3" state="rrrrrrryrrrrrrry"/>
  </tlLogic>
</additional>
