<routes>
  <vType accel="2.6" decel="4.5" id="type1" length="5" />
<flow begin="0" departLane="random" departPos="random_free" departSpeed="random" end="1" from="I0_I1" id="init:1" number="6" to="I0_P6" type="type1" />
<flow begin="0" departLane="random" departPos="random_free" departSpeed="random" end="1" from="I1_I0" id="init:2" number="6" to="I5_P10" type="type1" />
<flow begin="0" departLane="random" departPos="random_free" departSpeed="random" end="1" from="I1_I2" id="init:3" number="6" to="I8_P11" type="type1" />
<flow begin="0" departLane="random" departPos="random_free" departSpeed="random" end="1" from="I2_I1" id="init:4" number="6" to="I0_P6" type="type1" />
<flow begin="0" departLane="random" departPos="random_free" departSpeed="random" end="1" from="I3_I4" id="init:5" number="6" to="I5_P10" type="type1" />
<flow begin="0" departLane="random" departPos="random_free" departSpeed="random" end="1" from="I4_I3" id="init:6" number="6" to="I7_P4" type="type1" />
<flow begin="0" departLane="random" departPos="random_free" departSpeed="random" end="1" from="I4_I5" id="init:7" number="6" to="I7_P4" type="type1" />
<flow begin="0" departLane="random" departPos="random_free" departSpeed="random" end="1" from="I5_I4" id="init:8" number="6" to="I0_P0" type="type1" />
<flow begin="0" departLane="random" departPos="random_free" departSpeed="random" end="1" from="I6_I7" id="init:9" number="6" to="I6_P8" type="type1" />
<flow begin="0" departLane="random" departPos="random_free" departSpeed="random" end="1" from="I7_I6" id="init:10" number="6" to="I0_P0" type="type1" />
<flow begin="0" departLane="random" departPos="random_free" departSpeed="random" end="1" from="I7_I8" id="init:11" number="6" to="I3_P7" type="type1" />
<flow begin="0" departLane="random" departPos="random_free" departSpeed="random" end="1" from="I8_I7" id="init:12" number="6" to="I2_P9" type="type1" />
<flow begin="0" departLane="random" departPos="random_free" departSpeed="random" end="1" from="I0_I3" id="init:13" number="6" to="I1_P1" type="type1" />
<flow begin="0" departLane="random" departPos="random_free" departSpeed="random" end="1" from="I3_I0" id="init:14" number="6" to="I8_P5" type="type1" />
<flow begin="0" departLane="random" departPos="random_free" departSpeed="random" end="1" from="I3_I6" id="init:15" number="6" to="I3_P7" type="type1" />
<flow begin="0" departLane="random" departPos="random_free" departSpeed="random" end="1" from="I6_I3" id="init:16" number="6" to="I0_P0" type="type1" />
<flow begin="0" departLane="random" departPos="random_free" departSpeed="random" end="1" from="I1_I4" id="init:17" number="6" to="I6_P8" type="type1" />
<flow begin="0" departLane="random" departPos="random_free" departSpeed="random" end="1" from="I4_I1" id="init:18" number="6" to="I7_P4" type="type1" />
<flow begin="0" departLane="random" departPos="random_free" departSpeed="random" end="1" from="I4_I7" id="init:19" number="6" to="I7_P4" type="type1" />
<flow begin="0" departLane="random" departPos="random_free" departSpeed="random" end="1" from="I7_I4" id="init:20" number="6" to="I2_P2" type="type1" />
<flow begin="0" departLane="random" departPos="random_free" departSpeed="random" end="1" from="I2_I5" id="init:21" number="6" to="I6_P3" type="type1" />
<flow begin="0" departLane="random" departPos="random_free" departSpeed="random" end="1" from="I5_I2" id="init:22" number="6" to="I2_P9" type="type1" />
<flow begin="0" departLane="random" departPos="random_free" departSpeed="random" end="1" from="I5_I8" id="init:23" number="6" to="I6_P3" type="type1" />
<flow begin="0" departLane="random" departPos="random_free" departSpeed="random" end="1" from="I8_I5" id="init:24" number="6" to="I5_P10" type="type1" />
<flow begin="0" departLane="random" departSpeed="random" end="180" from="P0_I0" id="flow_sin_10" to="I7_P4" type="type1" vehsPerHour="350" />
<flow begin="0" departLane="random" departSpeed="random" end="180" from="P7_I3" id="flow_sin_20" to="I2_P2" type="type1" vehsPerHour="438" />
<flow begin="0" departLane="random" departSpeed="random" end="180" from="P9_I2" id="flow_sin_30" to="I6_P3" type="type1" vehsPerHour="700" />
<flow begin="0" departLane="random" departSpeed="random" end="180" from="P5_I8" id="flow_line_10" to="I1_P1" type="type1" vehsPerHour="10" />
<flow begin="0" departLane="random" departSpeed="random" end="180" from="P10_I5" id="flow_line_20" to="I6_P8" type="type1" vehsPerHour="390" />
<flow begin="0" departLane="random" departSpeed="random" end="180" from="P6_I0" id="flow_line_30" to="I8_P11" type="type1" vehsPerHour="207" />
<flow begin="180" departLane="random" departSpeed="random" end="360" from="P0_I0" id="flow_sin_11" to="I7_P4" type="type1" vehsPerHour="391" />
<flow begin="180" departLane="random" departSpeed="random" end="360" from="P7_I3" id="flow_sin_21" to="I2_P2" type="type1" vehsPerHour="460" />
<flow begin="180" departLane="random" departSpeed="random" end="360" from="P9_I2" id="flow_sin_31" to="I6_P3" type="type1" vehsPerHour="695" />
<flow begin="180" departLane="random" departSpeed="random" end="360" from="P5_I8" id="flow_line_11" to="I1_P1" type="type1" vehsPerHour="30" />
<flow begin="180" departLane="random" departSpeed="random" end="360" from="P10_I5" id="flow_line_21" to="I6_P8" type="type1" vehsPerHour="370" />
<flow begin="180" departLane="random" departSpeed="random" end="360" from="P6_I0" id="flow_line_31" to="I8_P11" type="type1" vehsPerHour="222" />
<flow begin="360" departLane="random" departSpeed="random" end="540" from="P0_I0" id="flow_sin_12" to="I7_P4" type="type1" vehsPerHour="431" />
<flow begin="360" departLane="random" departSpeed="random" end="540" from="P7_I3" id="flow_sin_22" to="I2_P2" type="type1" vehsPerHour="478" />
<flow begin="360" departLane="random" departSpeed="random" end="540" from="P9_I2" id="flow_sin_32" to="I6_P3" type="type1" vehsPerHour="683" />
<flow begin="360" departLane="random" departSpeed="random" end="540" from="P5_I8" id="flow_line_12" to="I1_P1" type="type1" vehsPerHour="50" />
<flow begin="360" departLane="random" departSpeed="random" end="540" from="P10_I5" id="flow_line_22" to="I6_P8" type="type1" vehsPerHour="350" />
<flow begin="360" departLane="random" departSpeed="random" end="540" from="P6_I0" id="flow_line_32" to="I8_P11" type="type1" vehsPerHour="237" />
<flow begin="540" departLane="random" departSpeed="random" end="720" from="P0_I0" id="flow_sin_13" to="I7_P4" type="type1" vehsPerHour="468" />
<flow begin="540" departLane="random" departSpeed="random" end="720" from="P7_I3" id="flow_sin_23" to="I2_P2" type="type1" vehsPerHour="491" />
<flow begin="540" departLane="random" departSpeed="random" end="720" from="P9_I2" id="flow_sin_33" to="I6_P3" type="type1" vehsPerHour="663" />
<flow begin="540" departLane="random" departSpeed="random" end="720" from="P5_I8" id="flow_line_13" to="I1_P1" type="type1" vehsPerHour="70" />
<flow begin="540" departLane="random" departSpeed="random" end="720" from="P10_I5" id="flow_line_23" to="I6_P8" type="type1" vehsPerHour="330" />
<flow begin="540" departLane="random" departSpeed="random" end="720" from="P6_I0" id="flow_line_33" to="I8_P11" type="type1" vehsPerHour="252" />
<flow begin="720" departLane="random" departSpeed="random" end="900" from="P0_I0" id="flow_sin_14" to="I7_P4" type="type1" vehsPerHour="503" />
<flow begin="720" departLane="random" departSpeed="random" end="900" from="P7_I3" id="flow_sin_24" to="I2_P2" type="type1" vehsPerHour="498" />
<flow begin="720" departLane="random" departSpeed="random" end="900" from="P9_I2" id="flow_sin_34" to="I6_P3" type="type1" vehsPerHour="636" />
<flow begin="720" departLane="random" departSpeed="random" end="900" from="P5_I8" id="flow_line_14" to="I1_P1" type="type1" vehsPerHour="90" />
<flow begin="720" departLane="random" departSpeed="random" end="900" from="P10_I5" id="flow_line_24" to="I6_P8" type="type1" vehsPerHour="310" />
<flow begin="720" departLane="random" departSpeed="random" end="900" from="P6_I0" id="flow_line_34" to="I8_P11" type="type1" vehsPerHour="267" />
<flow begin="900" departLane="random" departSpeed="random" end="1080" from="P0_I0" id="flow_sin_15" to="I7_P4" type="type1" vehsPerHour="533" />
<flow begin="900" departLane="random" departSpeed="random" end="1080" from="P7_I3" id="flow_sin_25" to="I2_P2" type="type1" vehsPerHour="499" />
<flow begin="900" departLane="random" departSpeed="random" end="1080" from="P9_I2" id="flow_sin_35" to="I6_P3" type="type1" vehsPerHour="603" />
<flow begin="900" departLane="random" departSpeed="random" end="1080" from="P5_I8" id="flow_line_15" to="I1_P1" type="type1" vehsPerHour="110" />
<flow begin="900" departLane="random" departSpeed="random" end="1080" from="P10_I5" id="flow_line_25" to="I6_P8" type="type1" vehsPerHour="290" />
<flow begin="900" departLane="random" departSpeed="random" end="1080" from="P6_I0" id="flow_line_35" to="I8_P11" type="type1" vehsPerHour="282" />
<flow begin="1080" departLane="random" departSpeed="random" end="1260" from="P0_I0" id="flow_sin_16" to="I7_P4" type="type1" vehsPerHour="559" />
<flow begin="1080" departLane="random" departSpeed="random" end="1260" from="P7_I3" id="flow_sin_26" to="I2_P2" type="type1" vehsPerHour="495" />
<flow begin="1080" departLane="random" departSpeed="random" end="1260" from="P9_I2" id="flow_sin_36" to="I6_P3" type="type1" vehsPerHour="564" />
<flow begin="1080" departLane="random" departSpeed="random" end="1260" from="P5_I8" id="flow_line_16" to="I1_P1" type="type1" vehsPerHour="130" />
<flow begin="1080" departLane="random" departSpeed="random" end="1260" from="P10_I5" id="flow_line_26" to="I6_P8" type="type1" vehsPerHour="270" />
<flow begin="1080" departLane="random" departSpeed="random" end="1260" from="P6_I0" id="flow_line_36" to="I8_P11" type="type1" vehsPerHour="297" />
<flow begin="1260" departLane="random" departSpeed="random" end="1440" from="P0_I0" id="flow_sin_17" to="I7_P4" type="type1" vehsPerHour="578" />
<flow begin="1260" departLane="random" departSpeed="random" end="1440" from="P7_I3" id="flow_sin_27" to="I2_P2" type="type1" vehsPerHour="485" />
<flow begin="1260" departLane="random" departSpeed="random" end="1440" from="P9_I2" id="flow_sin_37" to="I6_P3" type="type1" vehsPerHour="520" />
<flow begin="1260" departLane="random" departSpeed="random" end="1440" from="P5_I8" id="flow_line_17" to="I1_P1" type="type1" vehsPerHour="150" />
<flow begin="1260" departLane="random" departSpeed="random" end="1440" from="P10_I5" id="flow_line_27" to="I6_P8" type="type1" vehsPerHour="250" />
<flow begin="1260" departLane="random" departSpeed="random" end="1440" from="P6_I0" id="flow_line_37" to="I8_P11" type="type1" vehsPerHour="312" />
<flow begin="1440" departLane="random" departSpeed="random" end="1620" from="P0_I0" id="flow_sin_18" to="I7_P4" type="type1" vehsPerHour="592" />
<flow begin="1440" departLane="random" departSpeed="random" end="1620" from="P7_I3" id="flow_sin_28" to="I2_P2" type="type1" vehsPerHour="470" />
<flow begin="1440" departLane="random" departSpeed="random" end="1620" from="P9_I2" id="flow_sin_38" to="I6_P3" type="type1" vehsPerHour="473" />
<flow begin="1440" departLane="random" departSpeed="random" end="1620" from="P5_I8" id="flow_line_18" to="I1_P1" type="type1" vehsPerHour="170" />
<flow begin="1440" departLane="random" departSpeed="random" end="1620" from="P10_I5" id="flow_line_28" to="I6_P8" type="type1" vehsPerHour="230" />
<flow begin="1440" departLane="random" departSpeed="random" end="1620" from="P6_I0" id="flow_line_38" to="I8_P11" type="type1" vehsPerHour="327" />
<flow begin="1620" departLane="random" departSpeed="random" end="1800" from="P0_I0" id="flow_sin_19" to="I7_P4" type="type1" vehsPerHour="599" />
<flow begin="1620" departLane="random" departSpeed="random" end="1800" from="P7_I3" id="flow_sin_29" to="I2_P2" type="type1" vehsPerHour="450" />
<flow begin="1620" departLane="random" departSpeed="random" end="1800" from="P9_I2" id="flow_sin_39" to="I6_P3" type="type1" vehsPerHour="424" />
<flow begin="1620" departLane="random" departSpeed="random" end="1800" from="P5_I8" id="flow_line_19" to="I1_P1" type="type1" vehsPerHour="190" />
<flow begin="1620" departLane="random" departSpeed="random" end="1800" from="P10_I5" id="flow_line_29" to="I6_P8" type="type1" vehsPerHour="210" />
<flow begin="1620" departLane="random" departSpeed="random" end="1800" from="P6_I0" id="flow_line_39" to="I8_P11" type="type1" vehsPerHour="342" />
<flow begin="1800" departLane="random" departSpeed="random" end="1980" from="P0_I0" id="flow_sin_110" to="I7_P4" type="type1" vehsPerHour="599" />
<flow begin="1800" departLane="random" departSpeed="random" end="1980" from="P7_I3" id="flow_sin_210" to="I2_P2" type="type1" vehsPerHour="425" />
<flow begin="1800" departLane="random" departSpeed="random" end="1980" from="P9_I2" id="flow_sin_310" to="I6_P3" type="type1" vehsPerHour="375" />
<flow begin="1800" departLane="random" departSpeed="random" end="1980" from="P5_I8" id="flow_line_110" to="I1_P1" type="type1" vehsPerHour="210" />
<flow begin="1800" departLane="random" departSpeed="random" end="1980" from="P10_I5" id="flow_line_210" to="I6_P8" type="type1" vehsPerHour="190" />
<flow begin="1800" departLane="random" departSpeed="random" end="1980" from="P6_I0" id="flow_line_310" to="I8_P11" type="type1" vehsPerHour="357" />
<flow begin="1980" departLane="random" departSpeed="random" end="2160" from="P0_I0" id="flow_sin_111" to="I7_P4" type="type1" vehsPerHour="592" />
<flow begin="1980" departLane="random" departSpeed="random" end="2160" from="P7_I3" id="flow_sin_211" to="I2_P2" type="type1" vehsPerHour="397" />
<flow begin="1980" departLane="random" departSpeed="random" end="2160" from="P9_I2" id="flow_sin_311" to="I6_P3" type="type1" vehsPerHour="326" />
<flow begin="1980" departLane="random" departSpeed="random" end="2160" from="P5_I8" id="flow_line_111" to="I1_P1" type="type1" vehsPerHour="230" />
<flow begin="1980" departLane="random" departSpeed="random" end="2160" from="P10_I5" id="flow_line_211" to="I6_P8" type="type1" vehsPerHour="170" />
<flow begin="1980" departLane="random" departSpeed="random" end="2160" from="P6_I0" id="flow_line_311" to="I8_P11" type="type1" vehsPerHour="372" />
<flow begin="2160" departLane="random" departSpeed="random" end="2340" from="P0_I0" id="flow_sin_112" to="I7_P4" type="type1" vehsPerHour="578" />
<flow begin="2160" departLane="random" departSpeed="random" end="2340" from="P7_I3" id="flow_sin_212" to="I2_P2" type="type1" vehsPerHour="366" />
<flow begin="2160" departLane="random" departSpeed="random" end="2340" from="P9_I2" id="flow_sin_312" to="I6_P3" type="type1" vehsPerHour="279" />
<flow begin="2160" departLane="random" departSpeed="random" end="2340" from="P5_I8" id="flow_line_112" to="I1_P1" type="type1" vehsPerHour="250" />
<flow begin="2160" departLane="random" departSpeed="random" end="2340" from="P10_I5" id="flow_line_212" to="I6_P8" type="type1" vehsPerHour="150" />
<flow begin="2160" departLane="random" departSpeed="random" end="2340" from="P6_I0" id="flow_line_312" to="I8_P11" type="type1" vehsPerHour="387" />
<flow begin="2340" departLane="random" departSpeed="random" end="2520" from="P0_I0" id="flow_sin_113" to="I7_P4" type="type1" vehsPerHour="559" />
<flow begin="2340" departLane="random" departSpeed="random" end="2520" from="P7_I3" id="flow_sin_213" to="I2_P2" type="type1" vehsPerHour="333" />
<flow begin="2340" departLane="random" departSpeed="random" end="2520" from="P9_I2" id="flow_sin_313" to="I6_P3" type="type1" vehsPerHour="235" />
<flow begin="2340" departLane="random" departSpeed="random" end="2520" from="P5_I8" id="flow_line_113" to="I1_P1" type="type1" vehsPerHour="270" />
<flow begin="2340" departLane="random" departSpeed="random" end="2520" from="P10_I5" id="flow_line_213" to="I6_P8" type="type1" vehsPerHour="130" />
<flow begin="2340" departLane="random" departSpeed="random" end="2520" from="P6_I0" id="flow_line_313" to="I8_P11" type="type1" vehsPerHour="402" />
<flow begin="2520" departLane="random" departSpeed="random" end="2700" from="P0_I0" id="flow_sin_114" to="I7_P4" type="type1" vehsPerHour="533" />
<flow begin="2520" departLane="random" departSpeed="random" end="2700" from="P7_I3" id="flow_sin_214" to="I2_P2" type="type1" vehsPerHour="298" />
<flow begin="2520" departLane="random" departSpeed="random" end="2700" from="P9_I2" id="flow_sin_314" to="I6_P3" type="type1" vehsPerHour="196" />
<flow begin="2520" departLane="random" departSpeed="random" end="2700" from="P5_I8" id="flow_line_114" to="I1_P1" type="type1" vehsPerHour="290" />
<flow begin="2520" departLane="random" departSpeed="random" end="2700" from="P10_I5" id="flow_line_214" to="I6_P8" type="type1" vehsPerHour="110" />
<flow begin="2520" departLane="random" departSpeed="random" end="2700" from="P6_I0" id="flow_line_314" to="I8_P11" type="type1" vehsPerHour="417" />
<flow begin="2700" departLane="random" departSpeed="random" end="2880" from="P0_I0" id="flow_sin_115" to="I7_P4" type="type1" vehsPerHour="503" />
<flow begin="2700" departLane="random" departSpeed="random" end="2880" from="P7_I3" id="flow_sin_215" to="I2_P2" type="type1" vehsPerHour="264" />
<flow begin="2700" departLane="random" departSpeed="random" end="2880" from="P9_I2" id="flow_sin_315" to="I6_P3" type="type1" vehsPerHour="163" />
<flow begin="2700" departLane="random" departSpeed="random" end="2880" from="P5_I8" id="flow_line_115" to="I1_P1" type="type1" vehsPerHour="310" />
<flow begin="2700" departLane="random" departSpeed="random" end="2880" from="P10_I5" id="flow_line_215" to="I6_P8" type="type1" vehsPerHour="90" />
<flow begin="2700" departLane="random" departSpeed="random" end="2880" from="P6_I0" id="flow_line_315" to="I8_P11" type="type1" vehsPerHour="432" />
<flow begin="2880" departLane="random" departSpeed="random" end="3060" from="P0_I0" id="flow_sin_116" to="I7_P4" type="type1" vehsPerHour="468" />
<flow begin="2880" departLane="random" departSpeed="random" end="3060" from="P7_I3" id="flow_sin_216" to="I2_P2" type="type1" vehsPerHour="230" />
<flow begin="2880" departLane="random" departSpeed="random" end="3060" from="P9_I2" id="flow_sin_316" to="I6_P3" type="type1" vehsPerHour="136" />
<flow begin="2880" departLane="random" departSpeed="random" end="3060" from="P5_I8" id="flow_line_116" to="I1_P1" type="type1" vehsPerHour="330" />
<flow begin="2880" departLane="random" departSpeed="random" end="3060" from="P10_I5" id="flow_line_216" to="I6_P8" type="type1" vehsPerHour="70" />
<flow begin="2880" departLane="random" departSpeed="random" end="3060" from="P6_I0" id="flow_line_316" to="I8_P11" type="type1" vehsPerHour="447" />
<flow begin="3060" departLane="random" departSpeed="random" end="3240" from="P0_I0" id="flow_sin_117" to="I7_P4" type="type1" vehsPerHour="431" />
<flow begin="3060" departLane="random" departSpeed="random" end="3240" from="P7_I3" id="flow_sin_217" to="I2_P2" type="type1" vehsPerHour="197" />
<flow begin="3060" departLane="random" departSpeed="random" end="3240" from="P9_I2" id="flow_sin_317" to="I6_P3" type="type1" vehsPerHour="116" />
<flow begin="3060" departLane="random" departSpeed="random" end="3240" from="P5_I8" id="flow_line_117" to="I1_P1" type="type1" vehsPerHour="350" />
<flow begin="3060" departLane="random" departSpeed="random" end="3240" from="P10_I5" id="flow_line_217" to="I6_P8" type="type1" vehsPerHour="50" />
<flow begin="3060" departLane="random" departSpeed="random" end="3240" from="P6_I0" id="flow_line_317" to="I8_P11" type="type1" vehsPerHour="462" />
<flow begin="3240" departLane="random" departSpeed="random" end="3420" from="P0_I0" id="flow_sin_118" to="I7_P4" type="type1" vehsPerHour="391" />
<flow begin="3240" departLane="random" departSpeed="random" end="3420" from="P7_I3" id="flow_sin_218" to="I2_P2" type="type1" vehsPerHour="167" />
<flow begin="3240" departLane="random" departSpeed="random" end="3420" from="P9_I2" id="flow_sin_318" to="I6_P3" type="type1" vehsPerHour="104" />
<flow begin="3240" departLane="random" departSpeed="random" end="3420" from="P5_I8" id="flow_line_118" to="I1_P1" type="type1" vehsPerHour="370" />
<flow begin="3240" departLane="random" departSpeed="random" end="3420" from="P10_I5" id="flow_line_218" to="I6_P8" type="type1" vehsPerHour="30" />
<flow begin="3240" departLane="random" departSpeed="random" end="3420" from="P6_I0" id="flow_line_318" to="I8_P11" type="type1" vehsPerHour="477" />
<flow begin="3420" departLane="random" departSpeed="random" end="3600" from="P0_I0" id="flow_sin_119" to="I7_P4" type="type1" vehsPerHour="350" />
<flow begin="3420" departLane="random" departSpeed="random" end="3600" from="P7_I3" id="flow_sin_219" to="I2_P2" type="type1" vehsPerHour="141" />
<flow begin="3420" departLane="random" departSpeed="random" end="3600" from="P9_I2" id="flow_sin_319" to="I6_P3" type="type1" vehsPerHour="100" />
<flow begin="3420" departLane="random" departSpeed="random" end="3600" from="P5_I8" id="flow_line_119" to="I1_P1" type="type1" vehsPerHour="390" />
<flow begin="3420" departLane="random" departSpeed="random" end="3600" from="P10_I5" id="flow_line_219" to="I6_P8" type="type1" vehsPerHour="10" />
<flow begin="3420" departLane="random" departSpeed="random" end="3600" from="P6_I0" id="flow_line_319" to="I8_P11" type="type1" vehsPerHour="492" />
</routes>