<additional>
  <laneAreaDetector file="ild.out" freq="1" id="I3_I0_0" lane="I3_I0_0"             pos="-100" endPos="-1"/>
  <laneAreaDetector file="ild.out" freq="1" id="I3_I0_1" lane="I3_I0_1"             pos="-100" endPos="-1"/>
  <laneAreaDetector file="ild.out" freq="1" id="I3_I0_2" lane="I3_I0_2"             pos="-100" endPos="-1"/>
  <laneAreaDetector file="ild.out" freq="1" id="P0_I0_0" lane="P0_I0_0"             pos="-100" endPos="-1"/>
  <laneAreaDetector file="ild.out" freq="1" id="P0_I0_1" lane="P0_I0_1"             pos="-100" endPos="-1"/>
  <laneAreaDetector file="ild.out" freq="1" id="P0_I0_2" lane="P0_I0_2"             pos="-100" endPos="-1"/>
  <laneAreaDetector file="ild.out" freq="1" id="P6_I0_0" lane="P6_I0_0"             pos="-100" endPos="-1"/>
  <laneAreaDetector file="ild.out" freq="1" id="P6_I0_1" lane="P6_I0_1"             pos="-100" endPos="-1"/>
  <laneAreaDetector file="ild.out" freq="1" id="P6_I0_2" lane="P6_I0_2"             pos="-100" endPos="-1"/>
  <laneAreaDetector file="ild.out" freq="1" id="I1_I0_0" lane="I1_I0_0"             pos="-100" endPos="-1"/>
  <laneAreaDetector file="ild.out" freq="1" id="I1_I0_1" lane="I1_I0_1"             pos="-100" endPos="-1"/>
  <laneAreaDetector file="ild.out" freq="1" id="I1_I0_2" lane="I1_I0_2"             pos="-100" endPos="-1"/>
  <laneAreaDetector file="ild.out" freq="1" id="I4_I1_0" lane="I4_I1_0"             pos="-100" endPos="-1"/>
  <laneAreaDetector file="ild.out" freq="1" id="I4_I1_1" lane="I4_I1_1"             pos="-100" endPos="-1"/>
  <laneAreaDetector file="ild.out" freq="1" id="I4_I1_2" lane="I4_I1_2"             pos="-100" endPos="-1"/>
  <laneAreaDetector file="ild.out" freq="1" id="P1_I1_0" lane="P1_I1_0"             pos="-100" endPos="-1"/>
  <laneAreaDetector file="ild.out" freq="1" id="P1_I1_1" lane="P1_I1_1"             pos="-100" endPos="-1"/>
  <laneAreaDetector file="ild.out" freq="1" id="P1_I1_2" lane="P1_I1_2"             pos="-100" endPos="-1"/>
  <laneAreaDetector file="ild.out" freq="1" id="I0_I1_0" lane="I0_I1_0"             pos="-100" endPos="-1"/>
  <laneAreaDetector file="ild.out" freq="1" id="I0_I1_1" lane="I0_I1_1"             pos="-100" endPos="-1"/>
  <laneAreaDetector file="ild.out" freq="1" id="I0_I1_2" lane="I0_I1_2"             pos="-100" endPos="-1"/>
  <laneAreaDetector file="ild.out" freq="1" id="I2_I1_0" lane="I2_I1_0"             pos="-100" endPos="-1"/>
  <laneAreaDetector file="ild.out" freq="1" id="I2_I1_1" lane="I2_I1_1"             pos="-100" endPos="-1"/>
  <laneAreaDetector file="ild.out" freq="1" id="I2_I1_2" lane="I2_I1_2"             pos="-100" endPos="-1"/>
  <laneAreaDetector file="ild.out" freq="1" id="I5_I2_0" lane="I5_I2_0"             pos="-100" endPos="-1"/>
  <laneAreaDetector file="ild.out" freq="1" id="I5_I2_1" lane="I5_I2_1"             pos="-100" endPos="-1"/>
  <laneAreaDetector file="ild.out" freq="1" id="I5_I2_2" lane="I5_I2_2"             pos="-100" endPos="-1"/>
  <laneAreaDetector file="ild.out" freq="1" id="P2_I2_0" lane="P2_I2_0"             pos="-100" endPos="-1"/>
  <laneAreaDetector file="ild.out" freq="1" id="P2_I2_1" lane="P2_I2_1"             pos="-100" endPos="-1"/>
  <laneAreaDetector file="ild.out" freq="1" id="P2_I2_2" lane="P2_I2_2"             pos="-100" endPos="-1"/>
  <laneAreaDetector file="ild.out" freq="1" id="I1_I2_0" lane="I1_I2_0"             pos="-100" endPos="-1"/>
  <laneAreaDetector file="ild.out" freq="1" id="I1_I2_1" lane="I1_I2_1"             pos="-100" endPos="-1"/>
  <laneAreaDetector file="ild.out" freq="1" id="I1_I2_2" lane="I1_I2_2"             pos="-100" endPos="-1"/>
  <laneAreaDetector file="ild.out" freq="1" id="P9_I2_0" lane="P9_I2_0"             pos="-100" endPos="-1"/>
  <laneAreaDetector file="ild.out" freq="1" id="P9_I2_1" lane="P9_I2_1"             pos="-100" endPos="-1"/>
  <laneAreaDetector file="ild.out" freq="1" id="P9_I2_2" lane="P9_I2_2"             pos="-100" endPos="-1"/>
  <laneAreaDetector file="ild.out" freq="1" id="I6_I3_0" lane="I6_I3_0"             pos="-100" endPos="-1"/>
  <laneAreaDetector file="ild.out" freq="1" id="I6_I3_1" lane="I6_I3_1"             pos="-100" endPos="-1"/>
  <laneAreaDetector file="ild.out" freq="1" id="I6_I3_2" lane="I6_I3_2"             pos="-100" endPos="-1"/>
  <laneAreaDetector file="ild.out" freq="1" id="I0_I3_0" lane="I0_I3_0"             pos="-100" endPos="-1"/>
  <laneAreaDetector file="ild.out" freq="1" id="I0_I3_1" lane="I0_I3_1"             pos="-100" endPos="-1"/>
  <laneAreaDetector file="ild.out" freq="1" id="I0_I3_2" lane="I0_I3_2"             pos="-100" endPos="-1"/>
  <laneAreaDetector file="ild.out" freq="1" id="P7_I3_0" lane="P7_I3_0"             pos="-100" endPos="-1"/>
  <laneAreaDetector file="ild.out" freq="1" id="P7_I3_1" lane="P7_I3_1"             pos="-100" endPos="-1"/>
  <laneAreaDetector file="ild.out" freq="1" id="P7_I3_2" lane="P7_I3_2"             pos="-100" endPos="-1"/>
  <laneAreaDetector file="ild.out" freq="1" id="I4_I3_0" lane="I4_I3_0"             pos="-100" endPos="-1"/>
  <laneAreaDetector file="ild.out" freq="1" id="I4_I3_1" lane="I4_I3_1"             pos="-100" endPos="-1"/>
  <laneAreaDetector file="ild.out" freq="1" id="I4_I3_2" lane="I4_I3_2"             pos="-100" endPos="-1"/>
  <laneAreaDetector file="ild.out" freq="1" id="I7_I4_0" lane="I7_I4_0"             pos="-100" endPos="-1"/>
  <laneAreaDetector file="ild.out" freq="1" id="I7_I4_1" lane="I7_I4_1"             pos="-100" endPos="-1"/>
  <laneAreaDetector file="ild.out" freq="1" id="I7_I4_2" lane="I7_I4_2"             pos="-100" endPos="-1"/>
  <laneAreaDetector file="ild.out" freq="1" id="I1_I4_0" lane="I1_I4_0"             pos="-100" endPos="-1"/>
  <laneAreaDetector file="ild.out" freq="1" id="I1_I4_1" lane="I1_I4_1"             pos="-100" endPos="-1"/>
  <laneAreaDetector file="ild.out" freq="1" id="I1_I4_2" lane="I1_I4_2"             pos="-100" endPos="-1"/>
  <laneAreaDetector file="ild.out" freq="1" id="I3_I4_0" lane="I3_I4_0"             pos="-100" endPos="-1"/>
  <laneAreaDetector file="ild.out" freq="1" id="I3_I4_1" lane="I3_I4_1"             pos="-100" endPos="-1"/>
  <laneAreaDetector file="ild.out" freq="1" id="I3_I4_2" lane="I3_I4_2"             pos="-100" endPos="-1"/>
  <laneAreaDetector file="ild.out" freq="1" id="I5_I4_0" lane="I5_I4_0"             pos="-100" endPos="-1"/>
  <laneAreaDetector file="ild.out" freq="1" id="I5_I4_1" lane="I5_I4_1"             pos="-100" endPos="-1"/>
  <laneAreaDetector file="ild.out" freq="1" id="I5_I4_2" lane="I5_I4_2"             pos="-100" endPos="-1"/>
  <laneAreaDetector file="ild.out" freq="1" id="I8_I5_0" lane="I8_I5_0"             pos="-100" endPos="-1"/>
  <laneAreaDetector file="ild.out" freq="1" id="I8_I5_1" lane="I8_I5_1"             pos="-100" endPos="-1"/>
  <laneAreaDetector file="ild.out" freq="1" id="I8_I5_2" lane="I8_I5_2"             pos="-100" endPos="-1"/>
  <laneAreaDetector file="ild.out" freq="1" id="I2_I5_0" lane="I2_I5_0"             pos="-100" endPos="-1"/>
  <laneAreaDetector file="ild.out" freq="1" id="I2_I5_1" lane="I2_I5_1"             pos="-100" endPos="-1"/>
  <laneAreaDetector file="ild.out" freq="1" id="I2_I5_2" lane="I2_I5_2"             pos="-100" endPos="-1"/>
  <laneAreaDetector file="ild.out" freq="1" id="I4_I5_0" lane="I4_I5_0"             pos="-100" endPos="-1"/>
  <laneAreaDetector file="ild.out" freq="1" id="I4_I5_1" lane="I4_I5_1"             pos="-100" endPos="-1"/>
  <laneAreaDetector file="ild.out" freq="1" id="I4_I5_2" lane="I4_I5_2"             pos="-100" endPos="-1"/>
  <laneAreaDetector file="ild.out" freq="1" id="P10_I5_0" lane="P10_I5_0"             pos="-100" endPos="-1"/>
  <laneAreaDetector file="ild.out" freq="1" id="P10_I5_1" lane="P10_I5_1"             pos="-100" endPos="-1"/>
  <laneAreaDetector file="ild.out" freq="1" id="P10_I5_2" lane="P10_I5_2"             pos="-100" endPos="-1"/>
  <laneAreaDetector file="ild.out" freq="1" id="P3_I6_0" lane="P3_I6_0"             pos="-100" endPos="-1"/>
  <laneAreaDetector file="ild.out" freq="1" id="P3_I6_1" lane="P3_I6_1"             pos="-100" endPos="-1"/>
  <laneAreaDetector file="ild.out" freq="1" id="P3_I6_2" lane="P3_I6_2"             pos="-100" endPos="-1"/>
  <laneAreaDetector file="ild.out" freq="1" id="I3_I6_0" lane="I3_I6_0"             pos="-100" endPos="-1"/>
  <laneAreaDetector file="ild.out" freq="1" id="I3_I6_1" lane="I3_I6_1"             pos="-100" endPos="-1"/>
  <laneAreaDetector file="ild.out" freq="1" id="I3_I6_2" lane="I3_I6_2"             pos="-100" endPos="-1"/>
  <laneAreaDetector file="ild.out" freq="1" id="P8_I6_0" lane="P8_I6_0"             pos="-100" endPos="-1"/>
  <laneAreaDetector file="ild.out" freq="1" id="P8_I6_1" lane="P8_I6_1"             pos="-100" endPos="-1"/>
  <laneAreaDetector file="ild.out" freq="1" id="P8_I6_2" lane="P8_I6_2"             pos="-100" endPos="-1"/>
  <laneAreaDetector file="ild.out" freq="1" id="I7_I6_0" lane="I7_I6_0"             pos="-100" endPos="-1"/>
  <laneAreaDetector file="ild.out" freq="1" id="I7_I6_1" lane="I7_I6_1"             pos="-100" endPos="-1"/>
  <laneAreaDetector file="ild.out" freq="1" id="I7_I6_2" lane="I7_I6_2"             pos="-100" endPos="-1"/>
  <laneAreaDetector file="ild.out" freq="1" id="P4_I7_0" lane="P4_I7_0"             pos="-100" endPos="-1"/>
  <laneAreaDetector file="ild.out" freq="1" id="P4_I7_1" lane="P4_I7_1"             pos="-100" endPos="-1"/>
  <laneAreaDetector file="ild.out" freq="1" id="P4_I7_2" lane="P4_I7_2"             pos="-100" endPos="-1"/>
  <laneAreaDetector file="ild.out" freq="1" id="I4_I7_0" lane="I4_I7_0"             pos="-100" endPos="-1"/>
  <laneAreaDetector file="ild.out" freq="1" id="I4_I7_1" lane="I4_I7_1"             pos="-100" endPos="-1"/>
  <laneAreaDetector file="ild.out" freq="1" id="I4_I7_2" lane="I4_I7_2"             pos="-100" endPos="-1"/>
  <laneAreaDetector file="ild.out" freq="1" id="I6_I7_0" lane="I6_I7_0"             pos="-100" endPos="-1"/>
  <laneAreaDetector file="ild.out" freq="1" id="I6_I7_1" lane="I6_I7_1"             pos="-100" endPos="-1"/>
  <laneAreaDetector file="ild.out" freq="1" id="I6_I7_2" lane="I6_I7_2"             pos="-100" endPos="-1"/>
  <laneAreaDetector file="ild.out" freq="1" id="I8_I7_0" lane="I8_I7_0"             pos="-100" endPos="-1"/>
  <laneAreaDetector file="ild.out" freq="1" id="I8_I7_1" lane="I8_I7_1"             pos="-100" endPos="-1"/>
  <laneAreaDetector file="ild.out" freq="1" id="I8_I7_2" lane="I8_I7_2"             pos="-100" endPos="-1"/>
  <laneAreaDetector file="ild.out" freq="1" id="P5_I8_0" lane="P5_I8_0"             pos="-100" endPos="-1"/>
  <laneAreaDetector file="ild.out" freq="1" id="P5_I8_1" lane="P5_I8_1"             pos="-100" endPos="-1"/>
  <laneAreaDetector file="ild.out" freq="1" id="P5_I8_2" lane="P5_I8_2"             pos="-100" endPos="-1"/>
  <laneAreaDetector file="ild.out" freq="1" id="I5_I8_0" lane="I5_I8_0"             pos="-100" endPos="-1"/>
  <laneAreaDetector file="ild.out" freq="1" id="I5_I8_1" lane="I5_I8_1"             pos="-100" endPos="-1"/>
  <laneAreaDetector file="ild.out" freq="1" id="I5_I8_2" lane="I5_I8_2"             pos="-100" endPos="-1"/>
  <laneAreaDetector file="ild.out" freq="1" id="I7_I8_0" lane="I7_I8_0"             pos="-100" endPos="-1"/>
  <laneAreaDetector file="ild.out" freq="1" id="I7_I8_1" lane="I7_I8_1"             pos="-100" endPos="-1"/>
  <laneAreaDetector file="ild.out" freq="1" id="I7_I8_2" lane="I7_I8_2"             pos="-100" endPos="-1"/>
  <laneAreaDetector file="ild.out" freq="1" id="P11_I8_0" lane="P11_I8_0"             pos="-100" endPos="-1"/>
  <laneAreaDetector file="ild.out" freq="1" id="P11_I8_1" lane="P11_I8_1"             pos="-100" endPos="-1"/>
  <laneAreaDetector file="ild.out" freq="1" id="P11_I8_2" lane="P11_I8_2"             pos="-100" endPos="-1"/>
</additional>
